<?xml version="1.0" encoding="UTF-8" standalone="yes"?>
<template encoding-version="1.3">
    <description></description>
    <groupId>0d1a1bcc-0193-1000-2382-71520bf47f38</groupId>
    <name>MiC3_Data_Flow</name>
    <snippet>
        <connections>
            <id>06bd9904-372e-3ba1-0000-000000000000</id>
            <parentGroupId>cab0ce46-278a-38de-0000-000000000000</parentGroupId>
            <versionedComponentId>06bd9904-372e-3ba1-9546-aeba4597b336</versionedComponentId>
            <backPressureDataSizeThreshold>1 GB</backPressureDataSizeThreshold>
            <backPressureObjectThreshold>10000</backPressureObjectThreshold>
            <destination>
                <groupId>cab0ce46-278a-38de-0000-000000000000</groupId>
                <id>9c19589d-c023-381d-0000-000000000000</id>
                <type>PROCESSOR</type>
                <versionedComponentId>9c19589d-c023-381d-9174-365086b526c6</versionedComponentId>
            </destination>
            <flowFileExpiration>0 sec</flowFileExpiration>
            <labelIndex>1</labelIndex>
            <loadBalanceCompression>DO_NOT_COMPRESS</loadBalanceCompression>
            <loadBalancePartitionAttribute></loadBalancePartitionAttribute>
            <loadBalanceStatus>LOAD_BALANCE_NOT_CONFIGURED</loadBalanceStatus>
            <loadBalanceStrategy>DO_NOT_LOAD_BALANCE</loadBalanceStrategy>
            <name>JSON Data to Log File</name>
            <selectedRelationships>success</selectedRelationships>
            <source>
                <groupId>cab0ce46-278a-38de-0000-000000000000</groupId>
                <id>dbe02abe-6448-35ea-0000-000000000000</id>
                <type>PROCESSOR</type>
                <versionedComponentId>dbe02abe-6448-35ea-a3a0-4240eb5c3899</versionedComponentId>
            </source>
            <zIndex>0</zIndex>
        </connections>
        <connections>
            <id>06d2b4c0-3720-3d7d-0000-000000000000</id>
            <parentGroupId>cab0ce46-278a-38de-0000-000000000000</parentGroupId>
            <backPressureDataSizeThreshold>1 GB</backPressureDataSizeThreshold>
            <backPressureObjectThreshold>10000</backPressureObjectThreshold>
            <destination>
                <groupId>cab0ce46-278a-38de-0000-000000000000</groupId>
                <id>dc80f074-db67-33a2-0000-000000000000</id>
                <type>PROCESSOR</type>
                <versionedComponentId>dc80f074-db67-33a2-b70c-29a1b0c937e4</versionedComponentId>
            </destination>
            <flowFileExpiration>0 sec</flowFileExpiration>
            <labelIndex>1</labelIndex>
            <loadBalanceCompression>DO_NOT_COMPRESS</loadBalanceCompression>
            <loadBalancePartitionAttribute></loadBalancePartitionAttribute>
            <loadBalanceStatus>LOAD_BALANCE_NOT_CONFIGURED</loadBalanceStatus>
            <loadBalanceStrategy>DO_NOT_LOAD_BALANCE</loadBalanceStrategy>
            <name>JSON Data Processing Check</name>
            <selectedRelationships>success</selectedRelationships>
            <source>
                <groupId>cab0ce46-278a-38de-0000-000000000000</groupId>
                <id>719de8cf-b746-3a1a-0000-000000000000</id>
                <type>PROCESSOR</type>
                <versionedComponentId>719de8cf-b746-3a1a-afa5-555839c499ba</versionedComponentId>
            </source>
            <zIndex>0</zIndex>
        </connections>
        <connections>
            <id>086fc3e2-a7df-3efe-0000-000000000000</id>
            <parentGroupId>cab0ce46-278a-38de-0000-000000000000</parentGroupId>
            <backPressureDataSizeThreshold>1 GB</backPressureDataSizeThreshold>
            <backPressureObjectThreshold>10000</backPressureObjectThreshold>
            <destination>
                <groupId>cab0ce46-278a-38de-0000-000000000000</groupId>
                <id>faab6dc7-b11b-352e-0000-000000000000</id>
                <type>PROCESSOR</type>
                <versionedComponentId>faab6dc7-b11b-352e-acc8-16ac836197a6</versionedComponentId>
            </destination>
            <flowFileExpiration>0 sec</flowFileExpiration>
            <labelIndex>1</labelIndex>
            <loadBalanceCompression>DO_NOT_COMPRESS</loadBalanceCompression>
            <loadBalancePartitionAttribute></loadBalancePartitionAttribute>
            <loadBalanceStatus>LOAD_BALANCE_NOT_CONFIGURED</loadBalanceStatus>
            <loadBalanceStrategy>DO_NOT_LOAD_BALANCE</loadBalanceStrategy>
            <name></name>
            <selectedRelationships>success</selectedRelationships>
            <source>
                <groupId>cab0ce46-278a-38de-0000-000000000000</groupId>
                <id>3a2837cf-c47d-3275-0000-000000000000</id>
                <type>PROCESSOR</type>
            </source>
            <zIndex>0</zIndex>
        </connections>
        <connections>
            <id>0b434db4-e974-37bb-0000-000000000000</id>
            <parentGroupId>cab0ce46-278a-38de-0000-000000000000</parentGroupId>
            <backPressureDataSizeThreshold>1 GB</backPressureDataSizeThreshold>
            <backPressureObjectThreshold>10000</backPressureObjectThreshold>
            <destination>
                <groupId>cab0ce46-278a-38de-0000-000000000000</groupId>
                <id>31c4630d-40c6-307e-0000-000000000000</id>
                <type>PROCESSOR</type>
                <versionedComponentId>31c4630d-40c6-307e-8a6a-bcf38f05e622</versionedComponentId>
            </destination>
            <flowFileExpiration>0 sec</flowFileExpiration>
            <labelIndex>1</labelIndex>
            <loadBalanceCompression>DO_NOT_COMPRESS</loadBalanceCompression>
            <loadBalancePartitionAttribute></loadBalancePartitionAttribute>
            <loadBalanceStatus>LOAD_BALANCE_NOT_CONFIGURED</loadBalanceStatus>
            <loadBalanceStrategy>DO_NOT_LOAD_BALANCE</loadBalanceStrategy>
            <name></name>
            <selectedRelationships>success</selectedRelationships>
            <source>
                <groupId>cab0ce46-278a-38de-0000-000000000000</groupId>
                <id>3a2837cf-c47d-3275-0000-000000000000</id>
                <type>PROCESSOR</type>
            </source>
            <zIndex>0</zIndex>
        </connections>
        <connections>
            <id>27b98d9f-1da5-30a9-0000-000000000000</id>
            <parentGroupId>cab0ce46-278a-38de-0000-000000000000</parentGroupId>
            <versionedComponentId>27b98d9f-1da5-30a9-84d8-96258da9f128</versionedComponentId>
            <backPressureDataSizeThreshold>1 GB</backPressureDataSizeThreshold>
            <backPressureObjectThreshold>10000</backPressureObjectThreshold>
            <destination>
                <groupId>cab0ce46-278a-38de-0000-000000000000</groupId>
                <id>77edcb76-ba3a-3b47-0000-000000000000</id>
                <type>PROCESSOR</type>
                <versionedComponentId>77edcb76-ba3a-3b47-b623-0c4e2eb74244</versionedComponentId>
            </destination>
            <flowFileExpiration>0 sec</flowFileExpiration>
            <labelIndex>1</labelIndex>
            <loadBalanceCompression>DO_NOT_COMPRESS</loadBalanceCompression>
            <loadBalancePartitionAttribute></loadBalancePartitionAttribute>
            <loadBalanceStatus>LOAD_BALANCE_NOT_CONFIGURED</loadBalanceStatus>
            <loadBalanceStrategy>DO_NOT_LOAD_BALANCE</loadBalanceStrategy>
            <name>JSON Data to Log</name>
            <selectedRelationships>success</selectedRelationships>
            <source>
                <groupId>cab0ce46-278a-38de-0000-000000000000</groupId>
                <id>9b4e439b-8a1a-3232-0000-000000000000</id>
                <type>PROCESSOR</type>
                <versionedComponentId>9b4e439b-8a1a-3232-980e-222b53939b53</versionedComponentId>
            </source>
            <zIndex>0</zIndex>
        </connections>
        <connections>
            <id>3c96b7f8-8f6f-36ab-0000-000000000000</id>
            <parentGroupId>cab0ce46-278a-38de-0000-000000000000</parentGroupId>
            <versionedComponentId>3c96b7f8-8f6f-36ab-8a33-4c2e3f0f229e</versionedComponentId>
            <backPressureDataSizeThreshold>1 GB</backPressureDataSizeThreshold>
            <backPressureObjectThreshold>10000</backPressureObjectThreshold>
            <destination>
                <groupId>cab0ce46-278a-38de-0000-000000000000</groupId>
                <id>0047ff37-19c6-3a36-0000-000000000000</id>
                <type>PROCESSOR</type>
                <versionedComponentId>0047ff37-19c6-3a36-a2ca-00bd45e87fb8</versionedComponentId>
            </destination>
            <flowFileExpiration>0 sec</flowFileExpiration>
            <labelIndex>1</labelIndex>
            <loadBalanceCompression>DO_NOT_COMPRESS</loadBalanceCompression>
            <loadBalancePartitionAttribute></loadBalancePartitionAttribute>
            <loadBalanceStatus>LOAD_BALANCE_NOT_CONFIGURED</loadBalanceStatus>
            <loadBalanceStrategy>DO_NOT_LOAD_BALANCE</loadBalanceStrategy>
            <name>CSV Data to Log File</name>
            <selectedRelationships>success</selectedRelationships>
            <source>
                <groupId>cab0ce46-278a-38de-0000-000000000000</groupId>
                <id>f92920d4-21fc-3aa0-0000-000000000000</id>
                <type>PROCESSOR</type>
                <versionedComponentId>f92920d4-21fc-3aa0-913e-91573e31907c</versionedComponentId>
            </source>
            <zIndex>0</zIndex>
        </connections>
        <connections>
            <id>48de5d23-f2d2-3b14-0000-000000000000</id>
            <parentGroupId>cab0ce46-278a-38de-0000-000000000000</parentGroupId>
            <backPressureDataSizeThreshold>1 GB</backPressureDataSizeThreshold>
            <backPressureObjectThreshold>10000</backPressureObjectThreshold>
            <destination>
                <groupId>cab0ce46-278a-38de-0000-000000000000</groupId>
                <id>3a2837cf-c47d-3275-0000-000000000000</id>
                <type>PROCESSOR</type>
            </destination>
            <flowFileExpiration>0 sec</flowFileExpiration>
            <labelIndex>1</labelIndex>
            <loadBalanceCompression>DO_NOT_COMPRESS</loadBalanceCompression>
            <loadBalancePartitionAttribute></loadBalancePartitionAttribute>
            <loadBalanceStatus>LOAD_BALANCE_NOT_CONFIGURED</loadBalanceStatus>
            <loadBalanceStrategy>DO_NOT_LOAD_BALANCE</loadBalanceStrategy>
            <name></name>
            <selectedRelationships>success</selectedRelationships>
            <source>
                <groupId>cab0ce46-278a-38de-0000-000000000000</groupId>
                <id>9b4e439b-8a1a-3232-0000-000000000000</id>
                <type>PROCESSOR</type>
                <versionedComponentId>9b4e439b-8a1a-3232-980e-222b53939b53</versionedComponentId>
            </source>
            <zIndex>0</zIndex>
        </connections>
        <connections>
            <id>4910d609-85ff-3380-0000-000000000000</id>
            <parentGroupId>cab0ce46-278a-38de-0000-000000000000</parentGroupId>
            <backPressureDataSizeThreshold>1 GB</backPressureDataSizeThreshold>
            <backPressureObjectThreshold>10000</backPressureObjectThreshold>
            <destination>
                <groupId>cab0ce46-278a-38de-0000-000000000000</groupId>
                <id>def1d8a3-da48-3eb2-0000-000000000000</id>
                <type>PROCESSOR</type>
                <versionedComponentId>def1d8a3-da48-3eb2-9230-3710e7f97cbd</versionedComponentId>
            </destination>
            <flowFileExpiration>0 sec</flowFileExpiration>
            <labelIndex>1</labelIndex>
            <loadBalanceCompression>DO_NOT_COMPRESS</loadBalanceCompression>
            <loadBalancePartitionAttribute></loadBalancePartitionAttribute>
            <loadBalanceStatus>LOAD_BALANCE_NOT_CONFIGURED</loadBalanceStatus>
            <loadBalanceStrategy>DO_NOT_LOAD_BALANCE</loadBalanceStrategy>
            <name></name>
            <selectedRelationships>success</selectedRelationships>
            <source>
                <groupId>cab0ce46-278a-38de-0000-000000000000</groupId>
                <id>5167eb6b-7cb8-36e8-0000-000000000000</id>
                <type>PROCESSOR</type>
            </source>
            <zIndex>0</zIndex>
        </connections>
        <connections>
            <id>4d623226-2b94-3555-0000-000000000000</id>
            <parentGroupId>cab0ce46-278a-38de-0000-000000000000</parentGroupId>
            <versionedComponentId>4d623226-2b94-3555-a94e-71583fc83c6c</versionedComponentId>
            <backPressureDataSizeThreshold>1 GB</backPressureDataSizeThreshold>
            <backPressureObjectThreshold>10000</backPressureObjectThreshold>
            <destination>
                <groupId>cab0ce46-278a-38de-0000-000000000000</groupId>
                <id>de84fa3c-d39e-345e-0000-000000000000</id>
                <type>PROCESSOR</type>
                <versionedComponentId>de84fa3c-d39e-345e-b877-3ffc5149186e</versionedComponentId>
            </destination>
            <flowFileExpiration>0 sec</flowFileExpiration>
            <labelIndex>1</labelIndex>
            <loadBalanceCompression>DO_NOT_COMPRESS</loadBalanceCompression>
            <loadBalancePartitionAttribute></loadBalancePartitionAttribute>
            <loadBalanceStatus>LOAD_BALANCE_NOT_CONFIGURED</loadBalanceStatus>
            <loadBalanceStrategy>DO_NOT_LOAD_BALANCE</loadBalanceStrategy>
            <name></name>
            <selectedRelationships>success</selectedRelationships>
            <source>
                <groupId>cab0ce46-278a-38de-0000-000000000000</groupId>
                <id>def1d8a3-da48-3eb2-0000-000000000000</id>
                <type>PROCESSOR</type>
                <versionedComponentId>def1d8a3-da48-3eb2-9230-3710e7f97cbd</versionedComponentId>
            </source>
            <zIndex>0</zIndex>
        </connections>
        <connections>
            <id>4ef3afdb-8c9c-33ba-0000-000000000000</id>
            <parentGroupId>cab0ce46-278a-38de-0000-000000000000</parentGroupId>
            <versionedComponentId>4ef3afdb-8c9c-33ba-bd61-a07217150b72</versionedComponentId>
            <backPressureDataSizeThreshold>1 GB</backPressureDataSizeThreshold>
            <backPressureObjectThreshold>10000</backPressureObjectThreshold>
            <destination>
                <groupId>cab0ce46-278a-38de-0000-000000000000</groupId>
                <id>719de8cf-b746-3a1a-0000-000000000000</id>
                <type>PROCESSOR</type>
                <versionedComponentId>719de8cf-b746-3a1a-afa5-555839c499ba</versionedComponentId>
            </destination>
            <flowFileExpiration>0 sec</flowFileExpiration>
            <labelIndex>1</labelIndex>
            <loadBalanceCompression>DO_NOT_COMPRESS</loadBalanceCompression>
            <loadBalancePartitionAttribute></loadBalancePartitionAttribute>
            <loadBalanceStatus>LOAD_BALANCE_NOT_CONFIGURED</loadBalanceStatus>
            <loadBalanceStrategy>DO_NOT_LOAD_BALANCE</loadBalanceStrategy>
            <name>JSON Data to Processing</name>
            <selectedRelationships>json</selectedRelationships>
            <source>
                <groupId>cab0ce46-278a-38de-0000-000000000000</groupId>
                <id>9c6527f5-cbcd-32cb-0000-000000000000</id>
                <type>PROCESSOR</type>
                <versionedComponentId>9c6527f5-cbcd-32cb-bc28-4a0fc4ad4d71</versionedComponentId>
            </source>
            <zIndex>0</zIndex>
        </connections>
        <connections>
            <id>6e870728-1c49-3c26-0000-000000000000</id>
            <parentGroupId>cab0ce46-278a-38de-0000-000000000000</parentGroupId>
            <versionedComponentId>6e870728-1c49-3c26-815a-bdc6674f78a0</versionedComponentId>
            <backPressureDataSizeThreshold>1 GB</backPressureDataSizeThreshold>
            <backPressureObjectThreshold>10000</backPressureObjectThreshold>
            <destination>
                <groupId>cab0ce46-278a-38de-0000-000000000000</groupId>
                <id>ba3d3ce7-756b-364b-0000-000000000000</id>
                <type>PROCESSOR</type>
                <versionedComponentId>ba3d3ce7-756b-364b-8a87-74f899e5b33c</versionedComponentId>
            </destination>
            <flowFileExpiration>0 sec</flowFileExpiration>
            <labelIndex>1</labelIndex>
            <loadBalanceCompression>DO_NOT_COMPRESS</loadBalanceCompression>
            <loadBalancePartitionAttribute></loadBalancePartitionAttribute>
            <loadBalanceStatus>LOAD_BALANCE_NOT_CONFIGURED</loadBalanceStatus>
            <loadBalanceStrategy>DO_NOT_LOAD_BALANCE</loadBalanceStrategy>
            <name>CSV Data to Log File</name>
            <selectedRelationships>success</selectedRelationships>
            <source>
                <groupId>cab0ce46-278a-38de-0000-000000000000</groupId>
                <id>ce2848b9-6277-3be5-0000-000000000000</id>
                <type>PROCESSOR</type>
                <versionedComponentId>ce2848b9-6277-3be5-a938-41bf360dacc2</versionedComponentId>
            </source>
            <zIndex>0</zIndex>
        </connections>
        <connections>
            <id>72329db5-4cd5-3a43-0000-000000000000</id>
            <parentGroupId>cab0ce46-278a-38de-0000-000000000000</parentGroupId>
            <backPressureDataSizeThreshold>1 GB</backPressureDataSizeThreshold>
            <backPressureObjectThreshold>10000</backPressureObjectThreshold>
            <destination>
                <groupId>cab0ce46-278a-38de-0000-000000000000</groupId>
                <id>5167eb6b-7cb8-36e8-0000-000000000000</id>
                <type>PROCESSOR</type>
            </destination>
            <flowFileExpiration>0 sec</flowFileExpiration>
            <labelIndex>1</labelIndex>
            <loadBalanceCompression>DO_NOT_COMPRESS</loadBalanceCompression>
            <loadBalancePartitionAttribute></loadBalancePartitionAttribute>
            <loadBalanceStatus>LOAD_BALANCE_NOT_CONFIGURED</loadBalanceStatus>
            <loadBalanceStrategy>DO_NOT_LOAD_BALANCE</loadBalanceStrategy>
            <name></name>
            <selectedRelationships>success</selectedRelationships>
            <source>
                <groupId>cab0ce46-278a-38de-0000-000000000000</groupId>
                <id>db0a9f4d-dd00-3e61-0000-000000000000</id>
                <type>PROCESSOR</type>
                <versionedComponentId>db0a9f4d-dd00-3e61-a128-16269ee3986f</versionedComponentId>
            </source>
            <zIndex>0</zIndex>
        </connections>
        <connections>
            <id>75ee399d-8e68-3d51-0000-000000000000</id>
            <parentGroupId>cab0ce46-278a-38de-0000-000000000000</parentGroupId>
            <backPressureDataSizeThreshold>1 GB</backPressureDataSizeThreshold>
            <backPressureObjectThreshold>10000</backPressureObjectThreshold>
            <destination>
                <groupId>cab0ce46-278a-38de-0000-000000000000</groupId>
                <id>9c6527f5-cbcd-32cb-0000-000000000000</id>
                <type>PROCESSOR</type>
                <versionedComponentId>9c6527f5-cbcd-32cb-bc28-4a0fc4ad4d71</versionedComponentId>
            </destination>
            <flowFileExpiration>0 sec</flowFileExpiration>
            <labelIndex>1</labelIndex>
            <loadBalanceCompression>DO_NOT_COMPRESS</loadBalanceCompression>
            <loadBalancePartitionAttribute></loadBalancePartitionAttribute>
            <loadBalanceStatus>LOAD_BALANCE_NOT_CONFIGURED</loadBalanceStatus>
            <loadBalanceStrategy>DO_NOT_LOAD_BALANCE</loadBalanceStrategy>
            <name>CSV Data to File Routing</name>
            <selectedRelationships>success</selectedRelationships>
            <source>
                <groupId>cab0ce46-278a-38de-0000-000000000000</groupId>
                <id>ce2848b9-6277-3be5-0000-000000000000</id>
                <type>PROCESSOR</type>
                <versionedComponentId>ce2848b9-6277-3be5-a938-41bf360dacc2</versionedComponentId>
            </source>
            <zIndex>0</zIndex>
        </connections>
        <connections>
            <id>798f0db5-0f2e-32f3-0000-000000000000</id>
            <parentGroupId>cab0ce46-278a-38de-0000-000000000000</parentGroupId>
            <backPressureDataSizeThreshold>1 GB</backPressureDataSizeThreshold>
            <backPressureObjectThreshold>10000</backPressureObjectThreshold>
            <destination>
                <groupId>cab0ce46-278a-38de-0000-000000000000</groupId>
                <id>9489c4df-893d-3c2f-0000-000000000000</id>
                <type>PROCESSOR</type>
                <versionedComponentId>9489c4df-893d-3c2f-9ea1-8fd31ba7c6fe</versionedComponentId>
            </destination>
            <flowFileExpiration>0 sec</flowFileExpiration>
            <labelIndex>1</labelIndex>
            <loadBalanceCompression>DO_NOT_COMPRESS</loadBalanceCompression>
            <loadBalancePartitionAttribute></loadBalancePartitionAttribute>
            <loadBalanceStatus>LOAD_BALANCE_NOT_CONFIGURED</loadBalanceStatus>
            <loadBalanceStrategy>DO_NOT_LOAD_BALANCE</loadBalanceStrategy>
            <name></name>
            <selectedRelationships>success</selectedRelationships>
            <source>
                <groupId>cab0ce46-278a-38de-0000-000000000000</groupId>
                <id>faab6dc7-b11b-352e-0000-000000000000</id>
                <type>PROCESSOR</type>
                <versionedComponentId>faab6dc7-b11b-352e-acc8-16ac836197a6</versionedComponentId>
            </source>
            <zIndex>0</zIndex>
        </connections>
        <connections>
            <id>863f8db9-c015-3c06-0000-000000000000</id>
            <parentGroupId>cab0ce46-278a-38de-0000-000000000000</parentGroupId>
            <versionedComponentId>863f8db9-c015-3c06-a6df-43b5f436aeca</versionedComponentId>
            <backPressureDataSizeThreshold>1 GB</backPressureDataSizeThreshold>
            <backPressureObjectThreshold>10000</backPressureObjectThreshold>
            <destination>
                <groupId>cab0ce46-278a-38de-0000-000000000000</groupId>
                <id>9153bb3c-bc7a-39bc-0000-000000000000</id>
                <type>PROCESSOR</type>
                <versionedComponentId>9153bb3c-bc7a-39bc-874a-c9f3a6058e90</versionedComponentId>
            </destination>
            <flowFileExpiration>0 sec</flowFileExpiration>
            <labelIndex>1</labelIndex>
            <loadBalanceCompression>DO_NOT_COMPRESS</loadBalanceCompression>
            <loadBalancePartitionAttribute></loadBalancePartitionAttribute>
            <loadBalanceStatus>LOAD_BALANCE_NOT_CONFIGURED</loadBalanceStatus>
            <loadBalanceStrategy>DO_NOT_LOAD_BALANCE</loadBalanceStrategy>
            <name>Converted CSV Data Check</name>
            <selectedRelationships>success</selectedRelationships>
            <source>
                <groupId>cab0ce46-278a-38de-0000-000000000000</groupId>
                <id>48a544fc-d34b-3c39-0000-000000000000</id>
                <type>PROCESSOR</type>
                <versionedComponentId>48a544fc-d34b-3c39-864b-5d2bfb2f1c2c</versionedComponentId>
            </source>
            <zIndex>0</zIndex>
        </connections>
        <connections>
            <id>945c0922-d6c8-3b6a-0000-000000000000</id>
            <parentGroupId>cab0ce46-278a-38de-0000-000000000000</parentGroupId>
            <versionedComponentId>945c0922-d6c8-3b6a-aed8-5f5cfdcfbd1c</versionedComponentId>
            <backPressureDataSizeThreshold>1 GB</backPressureDataSizeThreshold>
            <backPressureObjectThreshold>10000</backPressureObjectThreshold>
            <destination>
                <groupId>cab0ce46-278a-38de-0000-000000000000</groupId>
                <id>f92920d4-21fc-3aa0-0000-000000000000</id>
                <type>PROCESSOR</type>
                <versionedComponentId>f92920d4-21fc-3aa0-913e-91573e31907c</versionedComponentId>
            </destination>
            <flowFileExpiration>0 sec</flowFileExpiration>
            <labelIndex>1</labelIndex>
            <loadBalanceCompression>DO_NOT_COMPRESS</loadBalanceCompression>
            <loadBalancePartitionAttribute></loadBalancePartitionAttribute>
            <loadBalanceStatus>LOAD_BALANCE_NOT_CONFIGURED</loadBalanceStatus>
            <loadBalanceStrategy>DO_NOT_LOAD_BALANCE</loadBalanceStrategy>
            <name>CSV Converted Data to Publish</name>
            <selectedRelationships>success</selectedRelationships>
            <source>
                <groupId>cab0ce46-278a-38de-0000-000000000000</groupId>
                <id>48a544fc-d34b-3c39-0000-000000000000</id>
                <type>PROCESSOR</type>
                <versionedComponentId>48a544fc-d34b-3c39-864b-5d2bfb2f1c2c</versionedComponentId>
            </source>
            <zIndex>0</zIndex>
        </connections>
        <connections>
            <id>afe6b389-5e1c-35b7-0000-000000000000</id>
            <parentGroupId>cab0ce46-278a-38de-0000-000000000000</parentGroupId>
            <versionedComponentId>afe6b389-5e1c-35b7-b138-34371454a5f7</versionedComponentId>
            <backPressureDataSizeThreshold>1 GB</backPressureDataSizeThreshold>
            <backPressureObjectThreshold>10000</backPressureObjectThreshold>
            <destination>
                <groupId>cab0ce46-278a-38de-0000-000000000000</groupId>
                <id>3e606d12-a800-3a26-0000-000000000000</id>
                <type>PROCESSOR</type>
                <versionedComponentId>3e606d12-a800-3a26-b957-4f31635d7692</versionedComponentId>
            </destination>
            <flowFileExpiration>0 sec</flowFileExpiration>
            <labelIndex>1</labelIndex>
            <loadBalanceCompression>DO_NOT_COMPRESS</loadBalanceCompression>
            <loadBalancePartitionAttribute></loadBalancePartitionAttribute>
            <loadBalanceStatus>LOAD_BALANCE_NOT_CONFIGURED</loadBalanceStatus>
            <loadBalanceStrategy>DO_NOT_LOAD_BALANCE</loadBalanceStrategy>
            <name>JSON Data to Log File </name>
            <selectedRelationships>success</selectedRelationships>
            <source>
                <groupId>cab0ce46-278a-38de-0000-000000000000</groupId>
                <id>d66af27e-2856-311f-0000-000000000000</id>
                <type>PROCESSOR</type>
                <versionedComponentId>d66af27e-2856-311f-81ec-d4501f924503</versionedComponentId>
            </source>
            <zIndex>0</zIndex>
        </connections>
        <connections>
            <id>b84b9071-8f4e-3b60-0000-000000000000</id>
            <parentGroupId>cab0ce46-278a-38de-0000-000000000000</parentGroupId>
            <backPressureDataSizeThreshold>1 GB</backPressureDataSizeThreshold>
            <backPressureObjectThreshold>10000</backPressureObjectThreshold>
            <destination>
                <groupId>cab0ce46-278a-38de-0000-000000000000</groupId>
                <id>7806b953-c7cf-300b-0000-000000000000</id>
                <type>PROCESSOR</type>
            </destination>
            <flowFileExpiration>0 sec</flowFileExpiration>
            <labelIndex>1</labelIndex>
            <loadBalanceCompression>DO_NOT_COMPRESS</loadBalanceCompression>
            <loadBalancePartitionAttribute></loadBalancePartitionAttribute>
            <loadBalanceStatus>LOAD_BALANCE_NOT_CONFIGURED</loadBalanceStatus>
            <loadBalanceStrategy>DO_NOT_LOAD_BALANCE</loadBalanceStrategy>
            <name></name>
            <selectedRelationships>success</selectedRelationships>
            <source>
                <groupId>cab0ce46-278a-38de-0000-000000000000</groupId>
                <id>8d0d5bc2-ea89-3761-0000-000000000000</id>
                <type>PROCESSOR</type>
            </source>
            <zIndex>0</zIndex>
        </connections>
        <connections>
            <id>c64ffa63-6797-30d3-0000-000000000000</id>
            <parentGroupId>cab0ce46-278a-38de-0000-000000000000</parentGroupId>
            <backPressureDataSizeThreshold>1 GB</backPressureDataSizeThreshold>
            <backPressureObjectThreshold>10000</backPressureObjectThreshold>
            <destination>
                <groupId>cab0ce46-278a-38de-0000-000000000000</groupId>
                <id>9c6527f5-cbcd-32cb-0000-000000000000</id>
                <type>PROCESSOR</type>
                <versionedComponentId>9c6527f5-cbcd-32cb-bc28-4a0fc4ad4d71</versionedComponentId>
            </destination>
            <flowFileExpiration>0 sec</flowFileExpiration>
            <labelIndex>1</labelIndex>
            <loadBalanceCompression>DO_NOT_COMPRESS</loadBalanceCompression>
            <loadBalancePartitionAttribute></loadBalancePartitionAttribute>
            <loadBalanceStatus>LOAD_BALANCE_NOT_CONFIGURED</loadBalanceStatus>
            <loadBalanceStrategy>DO_NOT_LOAD_BALANCE</loadBalanceStrategy>
            <name>JSON Data to File Routing</name>
            <selectedRelationships>success</selectedRelationships>
            <source>
                <groupId>cab0ce46-278a-38de-0000-000000000000</groupId>
                <id>d66af27e-2856-311f-0000-000000000000</id>
                <type>PROCESSOR</type>
                <versionedComponentId>d66af27e-2856-311f-81ec-d4501f924503</versionedComponentId>
            </source>
            <zIndex>0</zIndex>
        </connections>
        <connections>
            <id>d4a9552a-658e-3cf1-0000-000000000000</id>
            <parentGroupId>cab0ce46-278a-38de-0000-000000000000</parentGroupId>
            <versionedComponentId>d4a9552a-658e-3cf1-86a2-fb6d93f4ab78</versionedComponentId>
            <backPressureDataSizeThreshold>1 GB</backPressureDataSizeThreshold>
            <backPressureObjectThreshold>10000</backPressureObjectThreshold>
            <destination>
                <groupId>cab0ce46-278a-38de-0000-000000000000</groupId>
                <id>dbe02abe-6448-35ea-0000-000000000000</id>
                <type>PROCESSOR</type>
                <versionedComponentId>dbe02abe-6448-35ea-a3a0-4240eb5c3899</versionedComponentId>